Circuit: *

Ignoring BSIM parameter XL
Ignoring BSIM parameter XW
Ignoring BSIM parameter XL
Ignoring BSIM parameter XW
Direct Newton iteration for .op point succeeded.

Date: Sun Dec 08 10:51:13 2013
Total elapsed time: 0.724 seconds.

tnom = 27
temp = 27
method = modified trap
totiter = 12086
traniter = 12076
tranpoints = 5435
accept = 4530
rejected = 905
matrix size = 12
fillins = 0
solver = Normal
Matrix Compiler1:      30 opcodes  1.7/[1.3]/1.4
Matrix Compiler2: 1.03 KB object code size  1.5/1.8/[1.5]


