Circuit: *

Ignoring BSIM parameter XL
Ignoring BSIM parameter XW
Ignoring BSIM parameter XL
Ignoring BSIM parameter XW
Direct Newton iteration for .op point succeeded.

Date: Wed Dec 04 15:44:56 2013
Total elapsed time: 0.187 seconds.

tnom = 27
temp = 27
method = modified trap
totiter = 8385
traniter = 8378
tranpoints = 3780
accept = 3218
rejected = 562
matrix size = 5
fillins = 0
solver = Normal
Matrix Compiler1: 204 bytes object code size  1.4/1.3/[1.4]
Matrix Compiler2: off  [1.3]/2.2/1.6


