Circuit: *

Ignoring BSIM parameter XL
Ignoring BSIM parameter XW
Ignoring BSIM parameter XL
Ignoring BSIM parameter XW
Direct Newton iteration for .op point succeeded.

Date: Sun Dec 08 10:40:02 2013
Total elapsed time: 0.520 seconds.

tnom = 27
temp = 27
method = modified trap
totiter = 11672
traniter = 11662
tranpoints = 5313
accept = 4469
rejected = 844
matrix size = 11
fillins = 0
solver = Normal
Matrix Compiler1: 468 bytes object code size  1.9/1.6/[1.2]
Matrix Compiler2:      74 opcodes  1.4/[1.3]/2.0


