Circuit: * E:\Universidad\Tecnicas de Integración\Tareas\Inversor\Inversor.asc

Fatal Error: E2: Missing gain value
