Circuit: *** SPICE deck for cell Inversor{lay} from library Inversor

Ignoring BSIM parameter XL
Ignoring BSIM parameter XW
Ignoring BSIM parameter XL
Ignoring BSIM parameter XW
Direct Newton iteration for .op point succeeded.

Date: Thu Nov 28 08:21:35 2013
Total elapsed time: 0.499 seconds.

tnom = 27
temp = 27
method = modified trap
totiter = 7741
traniter = 7734
tranpoints = 3533
accept = 3005
rejected = 528
matrix size = 5
fillins = 0
solver = Normal
Matrix Compiler1: 204 bytes object code size  1.4/1.4/[1.4]
Matrix Compiler2: 311 bytes object code size  1.3/1.4/[1.3]


