Circuit: *** SPICE deck for cell Transmission{lay} from library Transmission

Ignoring BSIM parameter XL
Ignoring BSIM parameter XW
Ignoring BSIM parameter XL
Ignoring BSIM parameter XW
Direct Newton iteration for .op point succeeded.

Date: Thu Nov 28 08:58:16 2013
Total elapsed time: 0.424 seconds.

tnom = 27
temp = 27
method = modified trap
totiter = 7117
traniter = 7108
tranpoints = 3374
accept = 2922
rejected = 452
matrix size = 5
fillins = 0
solver = Normal
Matrix Compiler1: 150 bytes object code size  1.5/1.3/[1.2]
Matrix Compiler2: off  [1.3]/1.6/1.5


