Circuit: *** SPICE deck for cell Inversor{lay} from library Inversor

Ignoring BSIM parameter XL
Ignoring BSIM parameter XW
Ignoring BSIM parameter XL
Ignoring BSIM parameter XW
Direct Newton iteration for .op point succeeded.

Date: Tue Nov 26 13:57:43 2013
Total elapsed time: 0.445 seconds.

tnom = 27
temp = 27
method = modified trap
totiter = 7734
traniter = 7728
tranpoints = 3560
accept = 3045
rejected = 515
matrix size = 5
fillins = 0
solver = Normal
Matrix Compiler1: 204 bytes object code size  1.6/1.5/[1.5]
Matrix Compiler2: 311 bytes object code size  1.5/1.5/[1.3]


