Circuit: *** SPICE deck for cell Inversor{lay} from library Inversor

Ignoring BSIM parameter XL
Ignoring BSIM parameter XW
Ignoring BSIM parameter XL
Ignoring BSIM parameter XW
Direct Newton iteration for .op point succeeded.

Date: Tue Nov 26 14:05:11 2013
Total elapsed time: 0.349 seconds.

tnom = 27
temp = 27
method = modified trap
totiter = 7843
traniter = 7837
tranpoints = 3580
accept = 3043
rejected = 537
matrix size = 5
fillins = 0
solver = Normal
Matrix Compiler1: 204 bytes object code size  1.7/1.5/[1.5]
Matrix Compiler2: 311 bytes object code size  1.5/1.6/[1.2]


